Circuit: * X:\Users\Emilia\Desktop\ITBA\3er año\Electronica 3\TP2\tp2-grupo-2\Ej8\Others\ltspice simulation\Draft6.asc

Direct Newton iteration for .op point succeeded.

Date: Sun Oct 20 23:09:33 2019
Total elapsed time: 3.034 seconds.

tnom = 27
temp = 27
method = modified trap
totiter = 43498
traniter = 43480
tranpoints = 19780
accept = 18387
rejected = 1393
matrix size = 162
fillins = 179
solver = Normal
Thread vector: 61.8/19.0[3] 18.4/10.1[3] 2.9/276.6[1] 1.5/6.4[1]  2592/500
Matrix Compiler1:     852 opcodes  79.9/[10.2]/39.0
Matrix Compiler2: 15.72 KB object code size  23.9/12.4/[2.1]

