Circuit: * X:\Users\Emilia\Desktop\ITBA\3er año\Electronica 3\TP2\tp2-grupo-2\Ej8\Others\ltspice simulation\Draft6.asc

Direct Newton iteration for .op point succeeded.
Changing Tseed to 2e-009

Date: Tue Oct 22 16:25:47 2019
Total elapsed time: 4.675 seconds.

tnom = 27
temp = 27
method = modified trap
totiter = 30062
traniter = 30040
tranpoints = 15016
accept = 15015
rejected = 0
matrix size = 162
fillins = 201
solver = Normal
Thread vector: 18.3/13.8[3] 20.6/8.5[3] 5.0/7.1[1] 2.4/4.6[1]  2592/500
Matrix Compiler1: 16.67 KB object code size  18.3/12.8/[3.6]
Matrix Compiler2: 16.10 KB object code size  9.4/11.9/[2.5]

