Circuit: * X:\Users\Emilia\Desktop\ITBA\3er año\Electronica 3\TP2\tp2-grupo-2\Ej8\Others\ltspice simulation\triang_555.asc

Direct Newton iteration for .op point succeeded.

Date: Sun Oct 20 20:37:04 2019
Total elapsed time: 4.069 seconds.

tnom = 27
temp = 27
method = modified trap
totiter = 200758
traniter = 200750
tranpoints = 100195
accept = 100154
rejected = 41
matrix size = 20
fillins = 0
solver = Normal
Matrix Compiler1: 754 bytes object code size  0.2/0.1/[0.1]
Matrix Compiler2: 1.25 KB object code size  0.2/0.3/[0.2]

